ipss.test.plugin.core/testData/adpter/bpa/eqg017_omib.dat
(POWERFLOW,CASEID=OMIB,PROJECT=OMIB_TEST_SYSTEM)
/SOL_ITER,DECOUPLED=15,NEWTON=15\
./P_INPUT_LIST,ZONES=ALL\
/MVA_BASE=100 \
/P_OUTPUT_LIST,FULL \
/RPT_SORT=ZONE\
/P_ANALYSIS_RPT,LEVEL=4,FULL\
/OVERLOAD_RPT,TX=70,LINE=80\
/NEW_BASE,FILE=OMIB.BSE\
/NETWORK_DATA\
B     Bus2    15.001                                               
.BQ    Gen1    18. GD1300.10.      6       1355 116.4     1.
.EQG017
BE    Gen1    18. GX5999.1160.             60081179      1008 
BS    infBus  15.001                                     0.99
.L -----------------  transmission lines ----------------------------
T     Gen1    18.0 Bus2    15.0       0.0   .03               18.0 15.0         
.T ----- transformers --------- 
L     Bus2    15.0 infBus  15.0       0.0   .07                           
(END)     
